<?xml version="1.0" encoding="UTF-8"?>

<!-- generated on 2022-06-03 16:46:13 by Eclipse SUMO netedit Version 1.10.0
<configuration xmlns:xsi="http://www.w3.org/2001/XMLSchema-instance" xsi:noNamespaceSchemaLocation="http://sumo.dlr.de/xsd/netconvertConfiguration.xsd">

    <input>
        <sumo-net-file value="/home/kyber/SMARTS/examples/baseline/offline_cql/scenarios/cruise/map.net.xml"/>
    </input>

    <output>
        <output-file value="/home/kyber/SMARTS/examples/baseline/offline_cql/scenarios/cruise/map.net.xml"/>
    </output>

    <processing>
        <geometry.min-radius.fix.railways value="false"/>
        <geometry.max-grade.fix value="false"/>
        <offset.disable-normalization value="true"/>
        <lefthand value="false"/>
    </processing>

    <junctions>
        <no-internal-links value="true"/>
        <no-turnarounds value="true"/>
        <junctions.corner-detail value="5"/>
        <junctions.limit-turn-speed value="5.5"/>
        <rectangular-lane-cut value="false"/>
    </junctions>

    <pedestrian>
        <walkingareas value="false"/>
    </pedestrian>

    <report>
        <aggregate-warnings value="5"/>
    </report>

</configuration>
-->

<net version="1.9" junctionCornerDetail="5" limitTurnSpeed="5.50" xmlns:xsi="http://www.w3.org/2001/XMLSchema-instance" xsi:noNamespaceSchemaLocation="http://sumo.dlr.de/xsd/net_file.xsd">

    <location netOffset="0.00,0.00" convBoundary="42.35,100.00,236.67,100.17" origBoundary="-10000000000.00,-10000000000.00,10000000000.00,10000000000.00" projParameter="!"/>

    <edge id="gneE3" from="gneJ4" to="gneJ7" priority="-1" spreadType="center">
        <lane id="gneE3_0" index="0" speed="13.89" length="104.59" shape="42.35,96.80 146.94,96.89"/>
        <lane id="gneE3_1" index="1" speed="13.89" length="104.59" shape="42.35,100.00 146.94,100.09"/>
        <lane id="gneE3_2" index="2" speed="13.89" length="104.59" shape="42.35,103.20 146.94,103.29"/>
    </edge>
    <edge id="gneE3.104" from="gneJ7" to="gneJ6" priority="-1" spreadType="center">
        <lane id="gneE3.104_0" index="0" speed="13.89" length="89.73" shape="146.94,96.89 236.67,96.97"/>
        <lane id="gneE3.104_1" index="1" speed="13.89" length="89.73" shape="146.94,100.09 236.67,100.17"/>
        <lane id="gneE3.104_2" index="2" speed="13.89" length="89.73" shape="146.94,103.29 236.67,103.37"/>
    </edge>

    <junction id="gneJ4" type="dead_end" x="42.35" y="100.00" incLanes="" intLanes="" shape="42.35,104.80 42.35,95.20"/>
    <junction id="gneJ6" type="dead_end" x="236.67" y="100.17" incLanes="gneE3.104_0 gneE3.104_1 gneE3.104_2" intLanes="" shape="236.67,95.37 236.67,104.97"/>
    <junction id="gneJ7" type="priority" x="146.94" y="100.09" incLanes="gneE3_0 gneE3_1 gneE3_2" intLanes="" shape="146.94,104.89 146.94,95.29 146.94,104.89">
        <request index="0" response="000" foes="000"/>
        <request index="1" response="000" foes="000"/>
        <request index="2" response="000" foes="000"/>
    </junction>

    <connection from="gneE3" to="gneE3.104" fromLane="0" toLane="0" dir="s" state="M"/>
    <connection from="gneE3" to="gneE3.104" fromLane="1" toLane="1" dir="s" state="M"/>
    <connection from="gneE3" to="gneE3.104" fromLane="2" toLane="2" dir="s" state="M"/>

</net>
