<?xml version="1.0" encoding="UTF-8"?>

<!-- generated on 2022-07-01 00:27:52 by Eclipse SUMO netedit Version 1.13.0
<configuration xmlns:xsi="http://www.w3.org/2001/XMLSchema-instance" xsi:noNamespaceSchemaLocation="http://sumo.dlr.de/xsd/netconvertConfiguration.xsd">

    <input>
        <sumo-net-file value="scenarios/NGSIM/i80/map.net.xml"/>
    </input>

    <output>
        <output-file value="scenarios/NGSIM/i80/map.net.xml"/>
    </output>

    <processing>
        <geometry.min-radius.fix.railways value="false"/>
        <geometry.max-grade.fix value="false"/>
        <offset.disable-normalization value="true"/>
        <lefthand value="false"/>
    </processing>

    <junctions>
        <no-internal-links value="false"/>
        <no-turnarounds value="true"/>
        <junctions.corner-detail value="5"/>
        <junctions.limit-turn-speed value="5.5"/>
        <rectangular-lane-cut value="false"/>
    </junctions>

    <pedestrian>
        <walkingareas value="false"/>
    </pedestrian>

    <report>
        <aggregate-warnings value="5"/>
    </report>

</configuration>
-->

<net version="1.9" junctionCornerDetail="5" limitTurnSpeed="5.50" xmlns:xsi="http://www.w3.org/2001/XMLSchema-instance" xsi:noNamespaceSchemaLocation="http://sumo.dlr.de/xsd/net_file.xsd">

    <location netOffset="0.00,0.00" convBoundary="-5.32,-1.96,430.34,25.20" origBoundary="-10000000000.00,-10000000000.00,10000000000.00,10000000000.00" projParameter="!"/>

    <edge id=":cluster_J2_J8_0" function="internal">
        <lane id=":cluster_J2_J8_0_0" index="0" speed="13.89" length="15.81" width="4.50" shape="127.37,0.64 130.20,1.27 131.99,2.43 133.79,3.55 136.62,4.06"/>
        <lane id=":cluster_J2_J8_0_1" index="1" speed="13.89" length="15.81" width="3.66" shape="127.37,0.64 130.08,1.90 131.63,4.47 133.36,6.99 136.61,8.14"/>
        <lane id=":cluster_J2_J8_0_2" index="2" speed="13.89" length="15.81" width="3.66" shape="127.37,0.64 129.90,2.48 131.14,6.30 132.80,10.08 136.60,11.80"/>
        <lane id=":cluster_J2_J8_0_3" index="3" speed="13.89" length="15.81" width="3.66" shape="127.37,0.64 129.69,3.05 130.58,8.12 132.16,13.16 136.58,15.46"/>
        <lane id=":cluster_J2_J8_0_4" index="4" speed="13.89" length="15.81" width="3.66" shape="127.37,0.64 129.46,3.62 129.97,9.95 131.48,16.25 136.57,19.12"/>
    </edge>
    <edge id=":cluster_J2_J8_5" function="internal">
        <lane id=":cluster_J2_J8_5_0" index="0" speed="13.89" length="9.24" width="4.50" shape="127.36,4.72 136.62,4.06"/>
        <lane id=":cluster_J2_J8_5_1" index="1" speed="13.89" length="9.24" width="3.66" shape="127.36,8.38 136.61,8.14"/>
        <lane id=":cluster_J2_J8_5_2" index="2" speed="13.89" length="9.24" width="3.66" shape="127.35,12.04 136.60,11.80"/>
        <lane id=":cluster_J2_J8_5_3" index="3" speed="13.89" length="9.24" width="3.66" shape="127.35,15.70 136.58,15.46"/>
        <lane id=":cluster_J2_J8_5_4" index="4" speed="13.89" length="9.24" width="3.66" shape="127.35,19.36 136.57,19.12"/>
        <lane id=":cluster_J2_J8_5_5" index="5" speed="13.89" length="9.24" width="3.66" shape="127.34,23.02 136.56,22.78"/>
    </edge>
    <edge id=":cluster_J3_J7_0" function="internal">
        <lane id=":cluster_J3_J7_0_0" index="0" speed="13.89" length="3.00" width="5.00" shape="242.64,4.43 245.62,4.19"/>
        <lane id=":cluster_J3_J7_0_1" index="1" speed="13.89" length="3.00" width="3.66" shape="242.62,8.51 245.61,8.52"/>
        <lane id=":cluster_J3_J7_0_2" index="2" speed="13.89" length="3.00" width="3.66" shape="242.61,12.17 245.61,12.18"/>
        <lane id=":cluster_J3_J7_0_3" index="3" speed="13.89" length="3.00" width="3.66" shape="242.60,15.83 245.60,15.84"/>
        <lane id=":cluster_J3_J7_0_4" index="4" speed="13.89" length="3.00" width="3.66" shape="242.59,19.49 245.60,19.50"/>
        <lane id=":cluster_J3_J7_0_5" index="5" speed="13.89" length="3.00" width="3.66" shape="242.57,23.15 245.60,23.16"/>
    </edge>

    <edge id="E3" from="J5" to="cluster_J2_J8" priority="-1" shape="23.11,-1.96 128.68,2.95">
        <lane id="E3_0" index="0" speed="13.89" length="104.27" width="4.50" shape="23.21,-4.21 127.37,0.64"/>
    </edge>
    <edge id="gneE01" from="gneJ00" to="cluster_J2_J8" priority="-1" shape="-5.32,24.70 127.34,24.85">
        <lane id="gneE01_0" index="0" speed="13.89" length="132.66" width="3.66" shape="-5.30,4.57 127.36,4.72"/>
        <lane id="gneE01_1" index="1" speed="13.89" length="132.66" width="3.66" shape="-5.30,8.23 127.36,8.38"/>
        <lane id="gneE01_2" index="2" speed="13.89" length="132.66" width="3.66" shape="-5.31,11.89 127.35,12.04"/>
        <lane id="gneE01_3" index="3" speed="13.89" length="132.66" width="3.66" shape="-5.31,15.55 127.35,15.70"/>
        <lane id="gneE01_4" index="4" speed="13.89" length="132.66" width="3.66" shape="-5.31,19.21 127.35,19.36"/>
        <lane id="gneE01_5" index="5" speed="13.89" length="132.66" width="3.66" shape="-5.32,22.87 127.34,23.02"/>
    </edge>
    <edge id="gneE01.132" from="cluster_J2_J8" to="cluster_J3_J7" priority="-1" shape="136.55,24.61 244.08,24.99">
        <lane id="gneE01.132_0" index="0" speed="13.89" length="106.02" width="4.50" shape="136.62,4.06 242.64,4.43"/>
        <lane id="gneE01.132_1" index="1" speed="13.89" length="106.02" width="3.66" shape="136.61,8.14 242.62,8.51"/>
        <lane id="gneE01.132_2" index="2" speed="13.89" length="106.02" width="3.66" shape="136.60,11.80 242.61,12.17"/>
        <lane id="gneE01.132_3" index="3" speed="13.89" length="106.02" width="3.66" shape="136.58,15.46 242.60,15.83"/>
        <lane id="gneE01.132_4" index="4" speed="13.89" length="106.02" width="3.66" shape="136.57,19.12 242.59,19.49"/>
        <lane id="gneE01.132_5" index="5" speed="13.89" length="106.02" width="3.66" shape="136.56,22.78 242.57,23.15"/>
    </edge>
    <edge id="gneE01.249" from="cluster_J3_J7" to="gneJ10" priority="-1" shape="244.08,24.99 430.34,25.20">
        <lane id="gneE01.249_0" index="0" speed="13.89" length="184.75" width="5.00" shape="245.62,4.19 430.36,4.40"/>
        <lane id="gneE01.249_1" index="1" speed="13.89" length="184.75" width="3.66" shape="245.61,8.52 430.36,8.73"/>
        <lane id="gneE01.249_2" index="2" speed="13.89" length="184.75" width="3.66" shape="245.61,12.18 430.35,12.39"/>
        <lane id="gneE01.249_3" index="3" speed="13.89" length="184.75" width="3.66" shape="245.60,15.84 430.35,16.05"/>
        <lane id="gneE01.249_4" index="4" speed="13.89" length="184.75" width="3.66" shape="245.60,19.50 430.35,19.71"/>
        <lane id="gneE01.249_5" index="5" speed="13.89" length="184.75" width="3.66" shape="245.60,23.16 430.34,23.37"/>
    </edge>

    <junction id="J4" type="dead_end" x="430.24" y="7.00" incLanes="" intLanes="" shape="430.24,7.00"/>
    <junction id="J5" type="dead_end" x="23.11" y="-1.96" incLanes="" intLanes="" shape="23.11,-1.96 23.32,-6.46"/>
    <junction id="cluster_J2_J8" type="priority" x="131.02" y="15.83" incLanes="E3_0 gneE01_0 gneE01_1 gneE01_2 gneE01_3 gneE01_4 gneE01_5" intLanes=":cluster_J2_J8_0_0 :cluster_J2_J8_0_1 :cluster_J2_J8_0_2 :cluster_J2_J8_0_3 :cluster_J2_J8_0_4 :cluster_J2_J8_5_0 :cluster_J2_J8_5_1 :cluster_J2_J8_5_2 :cluster_J2_J8_5_3 :cluster_J2_J8_5_4 :cluster_J2_J8_5_5" shape="136.55,24.61 136.63,1.81 134.57,1.57 133.13,0.97 132.00,0.18 130.87,-0.63 129.43,-1.28 127.37,-1.62 127.34,24.85">
        <request index="0"  response="11111100000" foes="11111100000" cont="0"/>
        <request index="1"  response="11111100000" foes="11111100000" cont="0"/>
        <request index="2"  response="11111100000" foes="11111100000" cont="0"/>
        <request index="3"  response="11111100000" foes="11111100000" cont="0"/>
        <request index="4"  response="11111100000" foes="11111100000" cont="0"/>
        <request index="5"  response="00000000000" foes="00000011111" cont="0"/>
        <request index="6"  response="00000000000" foes="00000011111" cont="0"/>
        <request index="7"  response="00000000000" foes="00000011111" cont="0"/>
        <request index="8"  response="00000000000" foes="00000011111" cont="0"/>
        <request index="9"  response="00000000000" foes="00000011111" cont="0"/>
        <request index="10" response="00000000000" foes="00000011111" cont="0"/>
    </junction>
    <junction id="cluster_J3_J7" type="priority" x="243.33" y="15.85" incLanes="gneE01.132_0 gneE01.132_1 gneE01.132_2 gneE01.132_3 gneE01.132_4 gneE01.132_5" intLanes=":cluster_J3_J7_0_0 :cluster_J3_J7_0_1 :cluster_J3_J7_0_2 :cluster_J3_J7_0_3 :cluster_J3_J7_0_4 :cluster_J3_J7_0_5" shape="245.59,24.99 245.62,1.69 244.51,1.82 243.75,2.06 243.29,2.15 242.65,2.18 242.57,24.98">
        <request index="0" response="000000" foes="000000" cont="0"/>
        <request index="1" response="000000" foes="000000" cont="0"/>
        <request index="2" response="000000" foes="000000" cont="0"/>
        <request index="3" response="000000" foes="000000" cont="0"/>
        <request index="4" response="000000" foes="000000" cont="0"/>
        <request index="5" response="000000" foes="000000" cont="0"/>
    </junction>
    <junction id="gneJ00" type="dead_end" x="-5.32" y="24.70" incLanes="" intLanes="" shape="-5.32,24.70 -5.30,2.74"/>
    <junction id="gneJ10" type="dead_end" x="430.34" y="25.20" incLanes="gneE01.249_0 gneE01.249_1 gneE01.249_2 gneE01.249_3 gneE01.249_4 gneE01.249_5" intLanes="" shape="430.37,1.90 430.34,25.20"/>

    <connection from="E3" to="gneE01.132" fromLane="0" toLane="0" via=":cluster_J2_J8_0_0" dir="s" state="m"/>
    <connection from="E3" to="gneE01.132" fromLane="0" toLane="1" via=":cluster_J2_J8_0_1" dir="s" state="m"/>
    <connection from="E3" to="gneE01.132" fromLane="0" toLane="2" via=":cluster_J2_J8_0_2" dir="s" state="m"/>
    <connection from="E3" to="gneE01.132" fromLane="0" toLane="3" via=":cluster_J2_J8_0_3" dir="s" state="m"/>
    <connection from="E3" to="gneE01.132" fromLane="0" toLane="4" via=":cluster_J2_J8_0_4" dir="s" state="m"/>
    <connection from="gneE01" to="gneE01.132" fromLane="0" toLane="0" via=":cluster_J2_J8_5_0" dir="s" state="M"/>
    <connection from="gneE01" to="gneE01.132" fromLane="1" toLane="1" via=":cluster_J2_J8_5_1" dir="s" state="M"/>
    <connection from="gneE01" to="gneE01.132" fromLane="2" toLane="2" via=":cluster_J2_J8_5_2" dir="s" state="M"/>
    <connection from="gneE01" to="gneE01.132" fromLane="3" toLane="3" via=":cluster_J2_J8_5_3" dir="s" state="M"/>
    <connection from="gneE01" to="gneE01.132" fromLane="4" toLane="4" via=":cluster_J2_J8_5_4" dir="s" state="M"/>
    <connection from="gneE01" to="gneE01.132" fromLane="5" toLane="5" via=":cluster_J2_J8_5_5" dir="s" state="M"/>
    <connection from="gneE01.132" to="gneE01.249" fromLane="0" toLane="0" via=":cluster_J3_J7_0_0" dir="s" state="M"/>
    <connection from="gneE01.132" to="gneE01.249" fromLane="1" toLane="1" via=":cluster_J3_J7_0_1" dir="s" state="M"/>
    <connection from="gneE01.132" to="gneE01.249" fromLane="2" toLane="2" via=":cluster_J3_J7_0_2" dir="s" state="M"/>
    <connection from="gneE01.132" to="gneE01.249" fromLane="3" toLane="3" via=":cluster_J3_J7_0_3" dir="s" state="M"/>
    <connection from="gneE01.132" to="gneE01.249" fromLane="4" toLane="4" via=":cluster_J3_J7_0_4" dir="s" state="M"/>
    <connection from="gneE01.132" to="gneE01.249" fromLane="5" toLane="5" via=":cluster_J3_J7_0_5" dir="s" state="M"/>

    <connection from=":cluster_J2_J8_0" to="gneE01.132" fromLane="0" toLane="0" dir="s" state="M"/>
    <connection from=":cluster_J2_J8_0" to="gneE01.132" fromLane="1" toLane="1" dir="s" state="M"/>
    <connection from=":cluster_J2_J8_0" to="gneE01.132" fromLane="2" toLane="2" dir="s" state="M"/>
    <connection from=":cluster_J2_J8_0" to="gneE01.132" fromLane="3" toLane="3" dir="s" state="M"/>
    <connection from=":cluster_J2_J8_0" to="gneE01.132" fromLane="4" toLane="4" dir="s" state="M"/>
    <connection from=":cluster_J2_J8_5" to="gneE01.132" fromLane="0" toLane="0" dir="s" state="M"/>
    <connection from=":cluster_J2_J8_5" to="gneE01.132" fromLane="1" toLane="1" dir="s" state="M"/>
    <connection from=":cluster_J2_J8_5" to="gneE01.132" fromLane="2" toLane="2" dir="s" state="M"/>
    <connection from=":cluster_J2_J8_5" to="gneE01.132" fromLane="3" toLane="3" dir="s" state="M"/>
    <connection from=":cluster_J2_J8_5" to="gneE01.132" fromLane="4" toLane="4" dir="s" state="M"/>
    <connection from=":cluster_J2_J8_5" to="gneE01.132" fromLane="5" toLane="5" dir="s" state="M"/>
    <connection from=":cluster_J3_J7_0" to="gneE01.249" fromLane="0" toLane="0" dir="s" state="M"/>
    <connection from=":cluster_J3_J7_0" to="gneE01.249" fromLane="1" toLane="1" dir="s" state="M"/>
    <connection from=":cluster_J3_J7_0" to="gneE01.249" fromLane="2" toLane="2" dir="s" state="M"/>
    <connection from=":cluster_J3_J7_0" to="gneE01.249" fromLane="3" toLane="3" dir="s" state="M"/>
    <connection from=":cluster_J3_J7_0" to="gneE01.249" fromLane="4" toLane="4" dir="s" state="M"/>
    <connection from=":cluster_J3_J7_0" to="gneE01.249" fromLane="5" toLane="5" dir="s" state="M"/>

</net>
